Circuit: * C:\Users\meteh\Desktop\ee463-project\Tests\ltspice\current-sensing-with-opamp.asc

Direct Newton iteration for .op point succeeded.

Date: Mon Dec 12 23:49:43 2022
Total elapsed time: 1.880 seconds.

tnom = 27
temp = 27
method = modified trap
totiter = 200037
traniter = 200034
tranpoints = 100018
accept = 100018
rejected = 0
matrix size = 9
fillins = 1
solver = Normal
Matrix Compiler1: 296 bytes object code size  0.1/0.1/[0.0]
Matrix Compiler2: 647 bytes object code size  0.1/0.1/[0.1]

