Circuit: * C:\Users\meteh\Desktop\ee463-project\Tests\ltspice\Draft1.asc

C8: Increased Cpar to 1e-014
C6: Increased Cpar to 4.7e-010
C7: Increased Cpar to 4.7e-010
C5: Increased Cpar to 1e-013
C4: Increased Cpar to 1e-014
C3: Increased Cpar to 1e-013
C1: Increased Cpar to 1e-013
WARNING: Node N013 is floating.

WARNING: Less than two connections to node NC_01.  This node is used by R:U3:1.
WARNING: Less than two connections to node NC_02.  This node is used by R:U3:4.
Direct Newton iteration failed to find .op point.  (Use ".option noopiter" to skip.)
Starting Gmin stepping
Gmin = 10
Gmin = 1.07374
Gmin = 0.115292
Gmin = 0.0123794
Gmin = 0.00132923
Gmin = 0.000142725
Gmin = 1.5325e-005
Gmin = 1.6455e-006
Gmin = 1.76685e-007
Gmin = 1.89714e-008
Gmin = 2.03704e-009
Gmin = 2.18725e-010
vernier = 0.5
vernier = 0.25
vernier = 0.125
vernier = 0.0625
Gmin = 1.88531e-010
vernier = 0.03125
vernier = 0.0416667
vernier = 0.0208333
Gmin = 1.79466e-010
vernier = 0.0277778
vernier = 0.0138889
vernier = 0.00694444
vernier = 0.00347222
Gmin = 1.74865e-010
vernier = 0.00173611
vernier = 0.000868055
vernier = 0.000434028
Singular matrix:  Check node n016
   Iteration No. 16
Gmin = 0
Singular matrix:  Check node n016
   Iteration No. 1
Gmin stepping failed

Starting source stepping with srcstepmethod=0
Source Step = 3.0303%
vernier = 0.25
Source Step = 0.346236%
Source Step = 0.375829%
Source Step = 0.405421%
Source Step = 0.435014%
Source Step = 0.464607%
Source Step = 0.4942%
Source Step = 0.523793%
Source Step = 0.553385%
Source Step = 0.582978%
Source Step = 0.612571%
Starting source stepping with srcstepmethod=1
Source Step = 3.0303%
Source stepping failed

Pseudo transient terminated at 103.072 s, solution accepted ready or not!
Ignoring empty pin current: Ix(u1:n009)
Ignoring empty pin current: Ix(u1:nreset)
Ignoring empty pin current: Ix(u1:n002)
Ignoring empty pin current: Ix(u1:n005)
Ignoring empty pin current: Ix(u1:n008)
Ignoring empty pin current: Ix(u2:n009)
Ignoring empty pin current: Ix(u2:nreset)
Ignoring empty pin current: Ix(u2:n002)
Ignoring empty pin current: Ix(u2:n005)
Ignoring empty pin current: Ix(u2:n008)
Ignoring empty pin current: Ix(u3:in)
Ignoring empty pin current: Ix(u3:out)
Ignoring empty pin current: Ix(u3:vcc)
Ignoring empty pin current: Ix(u3:gnd)
Ignoring empty pin current: Ix(u3:nout)
Ignoring empty pin current: Ix(u1:n009)
Ignoring empty pin current: Ix(u1:nreset)
Ignoring empty pin current: Ix(u1:n002)
Ignoring empty pin current: Ix(u1:n005)
Ignoring empty pin current: Ix(u1:n008)
Ignoring empty pin current: Ix(u2:n009)
Ignoring empty pin current: Ix(u2:nreset)
Ignoring empty pin current: Ix(u2:n002)
Ignoring empty pin current: Ix(u2:n005)
Ignoring empty pin current: Ix(u2:n008)
Ignoring empty pin current: Ix(u3:in)
Ignoring empty pin current: Ix(u3:out)
Ignoring empty pin current: Ix(u3:vcc)
Ignoring empty pin current: Ix(u3:gnd)
Ignoring empty pin current: Ix(u3:nout)
Heightened Def Con from 0.00505578 to 0.00505578
Heightened Def Con from 0.0150555 to 0.0150555
Heightened Def Con from 0.0155001 to 0.0155001
Heightened Def Con from 0.0350555 to 0.0350555
Heightened Def Con from 0.0455 to 0.0455
Heightened Def Con from 0.0550555 to 0.0550555
Heightened Def Con from 0.0583888 to 0.0583888
Heightened Def Con from 0.0750555 to 0.0750555
Heightened Def Con from 0.0783889 to 0.0783889
Heightened Def Con from 0.088 to 0.088
Heightened Def Con from 0.0950555 to 0.0950555

Date: Wed Dec 14 03:57:38 2022
Total elapsed time: 29.307 seconds.

tnom = 27
temp = 27
method = modified trap
totiter = 1311722
traniter = 1278088
tranpoints = 327920
accept = 242105
rejected = 86340
matrix size = 172
fillins = 167
solver = Normal
Thread vector: 13.0/7.5[4] 20.4/4.5[4] 4.9/4.7[1] 0.7/1.8[1]  2592/500
Matrix Compiler1: 20.85 KB object code size  3.7/1.9/[0.9]
Matrix Compiler2: 17.12 KB object code size  1.8/2.8/[1.0]

