Circuit: * C:\Users\meteh\Desktop\ee463-project\Tests\ltspice\hcpl3120-test.asc

C4: Increased Cpar to 1e-014
C1: Increased Cpar to 1e-009
C3: Increased Cpar to 1e-011
C2: Increased Cpar to 1e-013
WARNING: Less than two connections to node NC_01.  This node is used by R:U2:1.
WARNING: Less than two connections to node NC_02.  This node is used by R:U2:4.
Direct Newton iteration for .op point succeeded.

Date: Tue Dec 13 18:03:08 2022
Total elapsed time: 15.641 seconds.

tnom = 27
temp = 27
method = modified trap
totiter = 2097582
traniter = 2097566
tranpoints = 633624
accept = 444152
rejected = 189472
matrix size = 66
fillins = 19
solver = Normal
Matrix Compiler1: 3.22 KB object code size  0.6/0.4/[0.2]
Matrix Compiler2: 5.07 KB object code size  0.4/0.6/[0.3]

